27
Ti4 O8
Ti    1.891270    1.891270    4.807511
Ti    1.891270    0.000000    7.211266
Ti    1.891270    3.782540    7.211266
Ti    0.000000    0.000000    9.615022
Ti    0.000000    3.782540    9.615022
Ti    3.782540    0.000000    9.615022
Ti    3.782540    3.782540    9.615022
 O    1.891270    1.891270    6.799283
 O    1.891270    0.000000    5.219494
 O    1.891270    3.782540    5.219494
 O    0.000000    0.000000    7.623249
 O    0.000000    3.782540    7.623249
 O    3.782540    0.000000    7.623249
 O    3.782540    3.782540    7.623249
 O    1.891270    0.000000    9.203038
 O    1.891270    3.782540    9.203038
 O    1.891270    5.673809    6.799283
 O   -1.891270    0.000000    9.203038
 O    0.000000    0.000000   11.606794
 O    0.000000    1.891270   10.027005
 O   -1.891270    3.782540    9.203038
 O    0.000000    3.782540   11.606794
 O    0.000000    5.673809   10.027005
 O    3.782540    0.000000   11.606794
 O    3.782540    1.891270   10.027005
 O    3.782540    3.782540   11.606794
 O    3.782540    5.673809   10.027005
