99
Ti4 O8
Ti    1.891270    1.891270    4.807511
Ti    1.891270    5.673810    4.807511
Ti    1.891270    9.456350    4.807511
Ti    5.673810    1.891270    4.807511
Ti    5.673810    5.673810    4.807511
Ti    5.673810    9.456350    4.807511
Ti    1.891270    0.000000    7.211266
Ti    1.891270    3.782540    7.211266
Ti    1.891270    7.565080    7.211266
Ti    1.891270   11.347620    7.211266
Ti    5.673810    0.000000    7.211266
Ti    5.673810    3.782540    7.211266
Ti    5.673810    7.565080    7.211266
Ti    5.673810   11.347620    7.211266
Ti    0.000000    0.000000    9.615022
Ti    0.000000    3.782540    9.615022
Ti    0.000000    7.565080    9.615022
Ti    0.000000   11.347620    9.615022
Ti    3.782540    0.000000    9.615022
Ti    3.782540    3.782540    9.615022
Ti    3.782540    7.565080    9.615022
Ti    3.782540   11.347620    9.615022
Ti    7.565080    0.000000    9.615022
Ti    7.565080    3.782540    9.615022
Ti    7.565080    7.565080    9.615022
Ti    7.565080   11.347620    9.615022
 O    1.891270    1.891270    6.799282
 O    1.891270    5.673810    6.799282
 O    1.891270    9.456350    6.799282
 O    5.673810    1.891270    6.799282
 O    5.673810    5.673810    6.799282
 O    5.673810    9.456350    6.799282
 O    1.891270    0.000000    5.219495
 O    1.891270    3.782540    5.219495
 O    1.891270    7.565080    5.219495
 O    1.891270   11.347620    5.219495
 O    5.673810    0.000000    5.219495
 O    5.673810    3.782540    5.219495
 O    5.673810    7.565080    5.219495
 O    5.673810   11.347620    5.219495
 O    0.000000    0.000000    7.623251
 O    0.000000    3.782540    7.623251
 O    0.000000    7.565080    7.623251
 O    0.000000   11.347620    7.623251
 O    3.782540    0.000000    7.623251
 O    3.782540    3.782540    7.623251
 O    3.782540    7.565080    7.623251
 O    3.782540   11.347620    7.623251
 O    7.565080    0.000000    7.623251
 O    7.565080    3.782540    7.623251
 O    7.565080    7.565080    7.623251
 O    7.565080   11.347620    7.623251
 O    1.891270    0.000000    9.203037
 O    1.891270    3.782540    9.203037
 O    1.891270    7.565080    9.203037
 O    1.891270   11.347620    9.203037
 O    5.673810    0.000000    9.203037
 O    5.673810    3.782540    9.203037
 O    5.673810    7.565080    9.203037
 O    5.673810   11.347620    9.203037
 O    0.000000    1.891270    4.395526
 O    3.782540    1.891270    4.395526
 O    0.000000    5.673810    4.395526
 O    3.782540    5.673810    4.395526
 O    0.000000    9.456350    4.395526
 O    3.782540    9.456350    4.395526
 O    7.565080    1.891270    4.395526
 O    7.565080    5.673810    4.395526
 O    7.565080    9.456350    4.395526
 O    1.891270   13.238890    6.799282
 O    5.673810   13.238890    6.799282
 O    0.000000    0.000000   11.606793
 O    0.000000    1.891270   10.027006
 O    0.000000    3.782540   11.606793
 O    0.000000    5.673810   10.027006
 O    0.000000    7.565080   11.606793
 O    0.000000    9.456350   10.027006
 O    0.000000   11.347620   11.606793
 O    0.000000   13.238890   10.027006
 O    3.782540    0.000000   11.606793
 O    3.782540    1.891270   10.027006
 O    3.782540    3.782540   11.606793
 O    3.782540    5.673810   10.027006
 O    3.782540    7.565080   11.606793
 O    3.782540    9.456350   10.027006
 O    3.782540   11.347620   11.606793
 O    3.782540   13.238890   10.027006
 O    7.565080    0.000000   11.606793
 O    7.565080    1.891270   10.027006
 O    9.456350    0.000000    9.203037
 O    7.565080    3.782540   11.606793
 O    7.565080    5.673810   10.027006
 O    9.456350    3.782540    9.203037
 O    7.565080    7.565080   11.606793
 O    7.565080    9.456350   10.027006
 O    9.456350    7.565080    9.203037
 O    7.565080   11.347620   11.606793
 O    7.565080   13.238890   10.027006
 O    9.456350   11.347620    9.203037
